/*--------------------------------*- C++ -*----------------------------------*\
| =========                 |                                                 |
| \\      /  F ield         | OpenFOAM: The Open Source CFD Toolbox           |
|  \\    /   O peration     | Version:  2412                                  |
|   \\  /    A nd           | Website:  www.openfoam.com                      |
|    \\/     M anipulation  |                                                 |
\*---------------------------------------------------------------------------*/
FoamFile
{
    version     2.0;
    format      ascii;
    arch        "LSB;label=32;scalar=64";
    class       polyBoundaryMesh;
    location    "constant/polyMesh";
    object      boundary;
}
// * * * * * * * * * * * * * * * * * * * * * * * * * * * * * * * * * * * * * //

6
(
    west
    {
        type            wall;
        inGroups        1(wall);
        nFaces          40;
        startFace       1540;
    }
    east
    {
        type            wall;
        inGroups        1(wall);
        nFaces          40;
        startFace       1580;
    }
    south
    {
        type            wall;
        inGroups        1(wall);
        nFaces          20;
        startFace       1620;
    }
    north
    {
        type            wall;
        inGroups        1(wall);
        nFaces          20;
        startFace       1640;
    }
    front
    {
        type            empty;
        inGroups        1(empty);
        nFaces          800;
        startFace       1660;
    }
    back
    {
        type            empty;
        inGroups        1(empty);
        nFaces          800;
        startFace       2460;
    }
)

// ************************************************************************* //
